simulator lang=spectre
ahdl_include "dummy_neural_amp.va"

subckt dummy_neural_amp VIN VREF VDD GND VOUT
XAMP (VIN VREF VDD GND VOUT) dummy_neural_amp_va
ends dummy_neural_amp
